file-created-by  Deltares, D-Flow FM Version 1.2.177.142431, Jan 26 2023, 11:34:53
file-creation-date  2024-05-23, 13:35:12                                        
task      full-coupling
geometry  unstructured z-layers
horizontal-aggregation no
reference-time              '20240101000000'
hydrodynamic-start-time     '20240507000000'
hydrodynamic-stop-time      '20240512000000'
hydrodynamic-timestep       '00000000000000'
conversion-ref-time         '20240101000000'
conversion-start-time       '20240507000000'
conversion-stop-time        '20240512000000'
conversion-timestep         '00000001000000'
grid-cells-first-direction                    2603
grid-cells-second-direction                      1
number-hydrodynamic-segments-per-layer        2603
number-hydrodynamic-layers                      41
number-water-quality-segments-per-layer       2603
number-water-quality-layers                     41
number-horizontal-exchanges                 155062
number-vertical-exchanges                   104120
hydrodynamic-file           'FlowFM'
aggregation-file            none
vertical-aggregation-file   none
boundaries-file             'FlowFM.bnd'
waqgeom-file                'FlowFM_waqgeom.nc'
grid-indices-file           'FlowFM.bnd'
grid-coordinates-file       'FlowFM_waqgeom.nc'
volumes-file                'FlowFM.vol'
areas-file                  'FlowFM.are'
flows-file                  'FlowFM.flo'
velocities-file             'FlowFM.vel'
pointers-file               'FlowFM.poi'
lengths-file                'FlowFM.len'
salinity-file               'FlowFM.sal'
temperature-file            'FlowFM.tem'
vert-diffusion-file         'FlowFM.vdf'
horizontal-surfaces-file    'FlowFM.srf'
surfaces-file               'FlowFM.srfold'
shear-stresses-file         'FlowFM.tau'
attributes-file             'FlowFM.atr'
z-layers-ztop        0.000000
z-layers-zbot     -100.000000
hydrodynamic-layers
       0.024390
       0.024390
       0.024390
       0.024390
       0.024390
       0.024390
       0.024390
       0.024390
       0.024390
       0.024390
       0.024390
       0.024390
       0.024390
       0.024390
       0.024390
       0.024390
       0.024390
       0.024390
       0.024390
       0.024390
       0.024390
       0.024390
       0.024390
       0.024390
       0.024390
       0.024390
       0.024390
       0.024390
       0.024390
       0.024390
       0.024390
       0.024390
       0.024390
       0.024390
       0.024390
       0.024390
       0.024390
       0.024390
       0.024390
       0.024390
       0.024390
end-hydrodynamic-layers
water-quality-layers   
       1.000000
       1.000000
       1.000000
       1.000000
       1.000000
       1.000000
       1.000000
       1.000000
       1.000000
       1.000000
       1.000000
       1.000000
       1.000000
       1.000000
       1.000000
       1.000000
       1.000000
       1.000000
       1.000000
       1.000000
       1.000000
       1.000000
       1.000000
       1.000000
       1.000000
       1.000000
       1.000000
       1.000000
       1.000000
       1.000000
       1.000000
       1.000000
       1.000000
       1.000000
       1.000000
       1.000000
       1.000000
       1.000000
       1.000000
       1.000000
       1.000000
end-water-quality-layers
sink-sources
         1        -2       294       -999.000000       -999.000000          6.416954         62.476775  S1
         2        -3        58       -999.000000       -999.000000          6.566591         62.483842  S2
         3        -4       397       -999.000000       -999.000000          6.433163         62.468011  S3
         4        -5       367       -999.000000       -999.000000          6.410920         62.465199  S4
         5        -6       174       -999.000000       -999.000000          6.502058         62.483680  Slettebakk
         6        -7       424       -999.000000       -999.000000          6.456013         62.470865  Vasstrandelva
         7        -8       344       -999.000000       -999.000000          6.395162         62.465031  Arsetelva
         8        -9       117       -999.000000       -999.000000          6.528610         62.481505  Brusdalen
         9       -10      2297       -999.000000       -999.000000          6.417926         62.470999  Vasstrandlia Pump
end-sink-sources
